# generated using pymatgen
data_Mg6MnVO8
_symmetry_space_group_name_H-M   'P 1'
_cell_length_a   8.61717132
_cell_length_b   4.32773180
_cell_length_c   4.32773180
_cell_angle_alpha   90.00000000
_cell_angle_beta   90.00000000
_cell_angle_gamma   90.00000000
_symmetry_Int_Tables_number   1
_chemical_formula_structural   Mg6MnVO8
_chemical_formula_sum   'Mg6 Mn1 V1 O8'
_cell_volume   161.39326394
_cell_formula_units_Z   1
loop_
 _symmetry_equiv_pos_site_id
 _symmetry_equiv_pos_as_xyz
  1  'x, y, z'
loop_
 _atom_site_type_symbol
 _atom_site_label
 _atom_site_symmetry_multiplicity
 _atom_site_fract_x
 _atom_site_fract_y
 _atom_site_fract_z
 _atom_site_occupancy
  Mg  Mg0  1  0.50000000  0.00000000  0.00000000  1
  Mg  Mg1  1  0.50000000  0.50000000  0.50000000  1
  Mg  Mg2  1  0.25335320  0.00000000  0.50000000  1
  Mg  Mg3  1  0.74664680  0.00000000  0.50000000  1
  Mg  Mg4  1  0.25335320  0.50000000  0.00000000  1
  Mg  Mg5  1  0.74664680  0.50000000  0.00000000  1
  Mn  Mn6  1  0.00000000  0.00000000  0.00000000  1
  V  V7  1  0.00000000  0.50000000  0.50000000  1
  O  O8  1  0.25749771  0.00000000  0.00000000  1
  O  O9  1  0.74250229  0.00000000  0.00000000  1
  O  O10  1  0.25499436  0.50000000  0.50000000  1
  O  O11  1  0.74500564  0.50000000  0.50000000  1
  O  O12  1  0.00000000  0.00000000  0.50000000  1
  O  O13  1  0.50000000  0.00000000  0.50000000  1
  O  O14  1  0.00000000  0.50000000  0.00000000  1
  O  O15  1  0.50000000  0.50000000  0.00000000  1
