# generated using pymatgen
data_LiMg6CoO8
_symmetry_space_group_name_H-M   'P 1'
_cell_length_a   8.49110947
_cell_length_b   4.20647539
_cell_length_c   4.20647539
_cell_angle_alpha   90.00000000
_cell_angle_beta   90.00000000
_cell_angle_gamma   90.00000000
_symmetry_Int_Tables_number   1
_chemical_formula_structural   LiMg6CoO8
_chemical_formula_sum   'Li1 Mg6 Co1 O8'
_cell_volume   150.24538635
_cell_formula_units_Z   1
loop_
 _symmetry_equiv_pos_site_id
 _symmetry_equiv_pos_as_xyz
  1  'x, y, z'
loop_
 _atom_site_type_symbol
 _atom_site_label
 _atom_site_symmetry_multiplicity
 _atom_site_fract_x
 _atom_site_fract_y
 _atom_site_fract_z
 _atom_site_occupancy
  Li  Li0  1  0.00000000  0.50000000  0.50000000  1
  Mg  Mg1  1  0.50000000  0.00000000  -0.00000000  1
  Mg  Mg2  1  0.50000000  0.50000000  0.50000000  1
  Mg  Mg3  1  0.24331539  -0.00000000  0.50000000  1
  Mg  Mg4  1  0.75668461  0.00000000  0.50000000  1
  Mg  Mg5  1  0.24331539  0.50000000  0.00000000  1
  Mg  Mg6  1  0.75668461  0.50000000  -0.00000000  1
  Co  Co7  1  0.00000000  0.00000000  -0.00000000  1
  O  O8  1  0.23638407  -0.00000000  -0.00000000  1
  O  O9  1  0.76361593  0.00000000  0.00000000  1
  O  O10  1  0.25620938  0.50000000  0.50000000  1
  O  O11  1  0.74379062  0.50000000  0.50000000  1
  O  O12  1  0.00000000  0.00000000  0.50000000  1
  O  O13  1  0.50000000  0.00000000  0.50000000  1
  O  O14  1  0.00000000  0.50000000  -0.00000000  1
  O  O15  1  0.50000000  0.50000000  -0.00000000  1
