# generated using pymatgen
data_SrMg14CrO16
_symmetry_space_group_name_H-M   'P 1'
_cell_length_a   8.63138317
_cell_length_b   8.63138317
_cell_length_c   4.46135518
_cell_angle_alpha   90.00000000
_cell_angle_beta   90.00000000
_cell_angle_gamma   90.00000000
_symmetry_Int_Tables_number   1
_chemical_formula_structural   SrMg14CrO16
_chemical_formula_sum   'Sr1 Mg14 Cr1 O16'
_cell_volume   332.37442037
_cell_formula_units_Z   1
loop_
 _symmetry_equiv_pos_site_id
 _symmetry_equiv_pos_as_xyz
  1  'x, y, z'
loop_
 _atom_site_type_symbol
 _atom_site_label
 _atom_site_symmetry_multiplicity
 _atom_site_fract_x
 _atom_site_fract_y
 _atom_site_fract_z
 _atom_site_occupancy
  Sr  Sr0  1  0.00000000  0.00000000  0.00000000  1
  Mg  Mg1  1  0.00000000  0.50000000  0.00000000  1
  Mg  Mg2  1  0.50000000  0.00000000  0.00000000  1
  Mg  Mg3  1  0.00000000  0.25940468  0.50000000  1
  Mg  Mg4  1  0.00000000  0.74059532  0.50000000  1
  Mg  Mg5  1  0.50000000  0.25206592  0.50000000  1
  Mg  Mg6  1  0.50000000  0.74793408  0.50000000  1
  Mg  Mg7  1  0.25940468  0.00000000  0.50000000  1
  Mg  Mg8  1  0.25206592  0.50000000  0.50000000  1
  Mg  Mg9  1  0.74059532  0.00000000  0.50000000  1
  Mg  Mg10  1  0.74793408  0.50000000  0.50000000  1
  Mg  Mg11  1  0.25493223  0.25493223  0.00000000  1
  Mg  Mg12  1  0.25493223  0.74506777  0.00000000  1
  Mg  Mg13  1  0.74506777  0.25493223  0.00000000  1
  Mg  Mg14  1  0.74506777  0.74506777  0.00000000  1
  Cr  Cr15  1  0.50000000  0.50000000  0.00000000  1
  O  O16  1  0.27146223  0.00000000  0.00000000  1
  O  O17  1  0.25067661  0.50000000  0.00000000  1
  O  O18  1  0.72853777  0.00000000  0.00000000  1
  O  O19  1  0.74932339  0.50000000  0.00000000  1
  O  O20  1  0.25024818  0.25024818  0.50000000  1
  O  O21  1  0.25024818  0.74975182  0.50000000  1
  O  O22  1  0.74975182  0.25024818  0.50000000  1
  O  O23  1  0.74975182  0.74975182  0.50000000  1
  O  O24  1  0.00000000  0.00000000  0.50000000  1
  O  O25  1  0.00000000  0.50000000  0.50000000  1
  O  O26  1  0.50000000  0.00000000  0.50000000  1
  O  O27  1  0.50000000  0.50000000  0.50000000  1
  O  O28  1  0.00000000  0.27146223  0.00000000  1
  O  O29  1  0.00000000  0.72853777  0.00000000  1
  O  O30  1  0.50000000  0.25067661  0.00000000  1
  O  O31  1  0.50000000  0.74932339  0.00000000  1
