# generated using pymatgen
data_SrMg14CdO16
_symmetry_space_group_name_H-M   'P 1'
_cell_length_a   8.71735266
_cell_length_b   8.79055499
_cell_length_c   4.43801502
_cell_angle_alpha   90.00000000
_cell_angle_beta   90.00000000
_cell_angle_gamma   90.00000000
_symmetry_Int_Tables_number   1
_chemical_formula_structural   SrMg14CdO16
_chemical_formula_sum   'Sr1 Mg14 Cd1 O16'
_cell_volume   340.08672384
_cell_formula_units_Z   1
loop_
 _symmetry_equiv_pos_site_id
 _symmetry_equiv_pos_as_xyz
  1  'x, y, z'
loop_
 _atom_site_type_symbol
 _atom_site_label
 _atom_site_symmetry_multiplicity
 _atom_site_fract_x
 _atom_site_fract_y
 _atom_site_fract_z
 _atom_site_occupancy
  Sr  Sr0  1  -0.00000000  0.00000000  0.00000000  1
  Mg  Mg1  1  0.50000000  0.00000000  0.00000000  1
  Mg  Mg2  1  0.50000000  0.50000000  0.00000000  1
  Mg  Mg3  1  -0.00000000  0.25541486  0.50000000  1
  Mg  Mg4  1  -0.00000000  0.74458514  0.50000000  1
  Mg  Mg5  1  0.50000000  0.25081260  0.50000000  1
  Mg  Mg6  1  0.50000000  0.74918740  0.50000000  1
  Mg  Mg7  1  0.25967900  0.00000000  0.50000000  1
  Mg  Mg8  1  0.25551284  0.50000000  0.50000000  1
  Mg  Mg9  1  0.74032100  -0.00000000  0.50000000  1
  Mg  Mg10  1  0.74448716  0.50000000  0.50000000  1
  Mg  Mg11  1  0.25839183  0.25363424  0.00000000  1
  Mg  Mg12  1  0.25839183  0.74636576  0.00000000  1
  Mg  Mg13  1  0.74160817  0.25363424  -0.00000000  1
  Mg  Mg14  1  0.74160817  0.74636576  -0.00000000  1
  Cd  Cd15  1  -0.00000000  0.50000000  0.00000000  1
  O  O16  1  0.27226472  -0.00000000  0.00000000  1
  O  O17  1  0.26911231  0.50000000  0.00000000  1
  O  O18  1  0.72773528  0.00000000  -0.00000000  1
  O  O19  1  0.73088769  0.50000000  0.00000000  1
  O  O20  1  0.24961781  0.25041261  0.50000000  1
  O  O21  1  0.24961781  0.74958739  0.50000000  1
  O  O22  1  0.75038219  0.25041261  0.50000000  1
  O  O23  1  0.75038219  0.74958739  0.50000000  1
  O  O24  1  -0.00000000  0.00000000  0.50000000  1
  O  O25  1  -0.00000000  0.50000000  0.50000000  1
  O  O26  1  0.50000000  0.00000000  0.50000000  1
  O  O27  1  0.50000000  0.50000000  0.50000000  1
  O  O28  1  -0.00000000  0.25779381  0.00000000  1
  O  O29  1  -0.00000000  0.74220619  0.00000000  1
  O  O30  1  0.50000000  0.25148602  0.00000000  1
  O  O31  1  0.50000000  0.74851398  -0.00000000  1
