# generated using pymatgen
data_HoCl3
_symmetry_space_group_name_H-M   'P 1'
_cell_length_a   9.76679796
_cell_length_b   9.76679441
_cell_length_c   3.55651034
_cell_angle_alpha   90.00000000
_cell_angle_beta   90.00000000
_cell_angle_gamma   119.99998904
_symmetry_Int_Tables_number   1
_chemical_formula_structural   HoCl3
_chemical_formula_sum   'Ho2 Cl6'
_cell_volume   293.80488002
_cell_formula_units_Z   2
loop_
 _symmetry_equiv_pos_site_id
 _symmetry_equiv_pos_as_xyz
  1  'x, y, z'
loop_
 _atom_site_type_symbol
 _atom_site_label
 _atom_site_symmetry_multiplicity
 _atom_site_fract_x
 _atom_site_fract_y
 _atom_site_fract_z
 _atom_site_occupancy
  Ho  Ho0  1  0.33333300  0.66666700  0.75000000  1
  Ho  Ho1  1  0.66666700  0.33333300  0.24999800  1
  Cl  Cl2  1  0.21795601  0.43591302  0.24999800  1
  Cl  Cl3  1  0.56408598  0.78204399  0.24999800  1
  Cl  Cl4  1  0.21795701  0.78204399  0.24999800  1
  Cl  Cl5  1  0.78204399  0.56408698  0.75000000  1
  Cl  Cl6  1  0.43591302  0.21795601  0.75000000  1
  Cl  Cl7  1  0.78204499  0.21795601  0.75000000  1
